test/test_files/validation_tests/case2869pegase_resqlim.m
function mpc = case2869pegase_resqlim
%CASE2869PEGASE_RESQLIM

%% MATPOWER Case Format : Version 2
mpc.version = '2';

%%-----  Power Flow Data  -----%%
%% system MVA base
mpc.baseMVA = 100;

%% bus data
%	bus_i	type	Pd	Qd	Gs	Bs	area	Vm	Va	baseKV	zone	Vmax	Vmin
mpc.bus = [
	3	1	151	48.8	0	4.69	0	1.0159732	-21.7899594	220	5	1.1	0.9;
	4	1	171.41	23.4	0	2.1	0	1.02549253	-6.86728794	220	5	1.1	0.9;
	10	1	134	24.7	0	12.44	0	1.03663835	-23.9297515	220	5	1.1	0.9;
	15	1	59.67	26.7	0	12.84	0	1.02422385	-48.8506443	220	4	1.1	0.9;
	21	1	161.2	39.3	0	30.71	0	1.03442536	-21.5641817	220	5	1.1	0.9;
	22	1	0	-0	0	0.85	0	1.03146964	-18.2436003	220	5	1.1	0.9;
	26	1	167.3	54.8	0	110.54	0	1.03282974	-3.23689231	380	5	1.1	0.9;
	29	1	152.9	49.4	0	27.65	0	0.996830776	-13.6125666	380	5	1.1	0.9;
	32	1	0	0	0	0	0	1.00230507	-42.8049027	220	4	1.1	0.9;
	33	2	0	0	0	0	0	1.031909	-38.5366092	220	4	1.1	0.9;
	38	1	42.75	12.8	0	13.3	0	1.02847599	27.4230984	220	8	1.1	0.9;
	39	2	0	0	0	0	0	1.005551	-38.1369695	150	10	1.1	0.9;
	42	1	20.82	7.9	0	26.89	0	1.04722207	-48.9806333	380	4	1.1	0.9;
	44	1	-0	0	0	7.27	0	1.04400269	-21.8203645	220	5	1.1	0.9;
	51	2	0	0	0	0	0	1.01198	-47.9735052	220	4	1.1	0.9;
	52	1	127.6	31.8	0	20.51	0	1.01377605	1.56404839	150	8	1.1	0.9;
	53	1	48.65	16.1	0	7.14	0	1.06052932	-9.0778281	220	5	1.1	0.9;
	58	1	0	0	0	2.31	0	0.996663482	-15.5759665	380	5	1.1	0.9;
	59	1	119.2	20.7	0	3.31	0	1.01956967	-23.8602911	220	5	1.1	0.9;
	69	1	62.87	20.5	0	1.15	0	1.01235222	0.347311196	150	8	1.1	0.9;
	71	1	126.3	42.4	0	55.24	0	1.03800169	4.67558026	150	8	1.1	0.9;
	72	1	6.91	-4.6	0	5.75	0	1.00881548	-41.1124243	220	4	1.1	0.9;
	75	1	38.74	6.1	0	1.17	0	1.02431637	-53.0176919	220	4	1.1	0.9;
	76	1	22.13	10.7	0	14.21	0	1.02853786	27.4327159	220	8	1.1	0.9;
	77	1	-0	-0	0	0.73	0	1.01408984	-50.3034882	220	4	1.1	0.9;
	89	1	0	0	0.199111	4.530599	0	0.995743716	-2.11979355	380	2	1.1	0.9;
	90	1	363.25	115.39	0	3.95	0	1.04152694	-27.528565	220	5	1.1	0.9;
	91	1	-0	0	0	0.02	0	1.01177434	2.65908229	150	8	1.1	0.9;
	96	1	-8.4	28.66	0	3.49	0	1.03400441	-15.5042128	220	5	1.1	0.9;
	113	1	-0	-0	0	6.532711	0	1.03036066	-14.0064357	380	5	1.1	0.9;
	115	1	0	-0	0	4.21	0	1.06525905	-19.3737347	220	5	1.1	0.9;
	118	1	704.53	-35.33	0	13.102834	0	1.02190052	-11.3029434	380	5	1.1	0.9;
	124	2	0	0	0	0	0	1.079291	8.49154325	220	5	1.1	0.9;
	128	1	23.73	12.7	0	0.52	0	1.0196868	-15.6152813	220	5	1.1	0.9;
	130	1	-0	0	0.135375	47.750675	0	1.06297734	-47.1650485	380	10	1.1	0.9;
	132	1	0	-0	0	21.39	0	1.06782568	-43.8351877	380	1	1.1	0.9;
	133	1	38.14	12.5	0	6.28	0	1.01970173	3.12468301	150	8	1.1	0.9;
	138	1	-75.38	7.8	0	29.9	0	1.07115357	-41.8324284	380	10	1.1	0.9;
	139	1	-764.34	66.91	0	33.47	0	1.00371278	18.8906193	380	8	1.1	0.9;
	140	1	0	0	0	4.14	0	1.02911563	18.8900287	220	8	1.1	0.9;
	143	1	0	0	0	0	0	1.01416951	5.90090547	150	8	1.1	0.9;
	145	1	38.34	5.6	0	7.64	0	1.04216934	-8.81778826	220	5	1.1	0.9;
	148	1	32.34	12	0	6.1	0	1.04168656	-7.87174628	220	5	1.1	0.9;
	150	2	0	0	0	0	0	1.062067	2.66443891	220	5	1.1	0.9;
	163	1	147.76	32.73	0	8.34	0	1.03783699	-10.5628265	220	5	1.1	0.9;
	164	1	0	-0	0	5.17	0	1.01598973	0.591240952	150	8	1.1	0.9;
	171	1	100.8	13.2	0	5.24	0	1.06350814	-25.0679009	220	5	1.1	0.9;
	172	1	111.7	10.96	0	4.22	0	1.01656519	-47.0927945	220	4	1.1	0.9;
	174	1	370.5	-17	0	9.91	0	1.0729671	-27.6441642	220	5	1.1	0.9;
	177	1	94.9	36.2	0	16.46	0	0.973372638	-43.1819807	220	10	1.1	0.9;
	179	1	0	0	0	0	0	1.04667737	-49.7828362	380	4	1.1	0.9;
	184	1	-0	-0	0	2.42	0	1.04306042	-11.394824	220	5	1.1	0.9;
	188	1	36.84	13.9	0	3.3	0	1.01733204	-19.3183189	220	5	1.1	0.9;
	194	2	0	0	0	0	0	1.029584	14.2794972	150	8	1.1	0.9;
	195	1	73.14	21.55	0	8.52	0	1.05318987	-8.50962183	220	5	1.1	0.9;
	196	1	0	-0	0	12.48	0	1.07263362	-25.9386021	220	5	1.1	0.9;
	198	1	39.74	11.8	0	1.44	0	1.01527781	-15.8904849	220	5	1.1	0.9;
	199	1	86.8	28.4	0	1.34	0	1.01180405	1.8272051	150	8	1.1	0.9;
	201	1	0	0	0	0	0	1.02433389	-51.2422377	220	4	1.1	0.9;
	205	1	46.15	18.2	0	1.29	0	1.00912534	6.50420212	150	8	1.1	0.9;
	207	1	321.98	84.4	0	1.34	0	1.02713999	-12.9416507	220	5	1.1	0.9;
	211	1	75.28	19.2	0	1.9	0	1.03245238	14.6707175	110	8	1.1	0.9;
	216	1	155.6	54.7	0	2.21	0	1.03853638	-24.2858295	220	5	1.1	0.9;
	217	1	105.2	0.1	0	7.36	0	1.03487994	-2.50905179	220	5	1.1	0.9;
	218	1	69.83	15.12	0	2.23	0	1.04206055	-13.1265125	220	5	1.1	0.9;
	221	2	0	0	0	0	0	0.996091	-16.2014926	380	5	1.1	0.9;
	225	1	0	0	0	1.15	0	1.06221906	-19.765486	220	5	1.1	0.9;
	228	1	-23.43	57.4	0	0	0	1.04442372	-6.55202783	150	2	1.1	0.9;
	230	1	152.07	22.52	0	7.87	0	1.00674366	-46.7994116	220	4	1.1	0.9;
	231	1	-0.13	-1	0	0	0	1.01975491	24.2170529	110	8	1.1	0.9;
	236	1	45.85	7	0	1.05	0	1.02833353	-54.0617764	220	4	1.1	0.9;
	243	1	0	-0.01	0	13.49	0	1.01714555	18.263774	150	8	1.1	0.9;
	244	1	-0	-0	0	0.68	0	1.01892415	6.39474266	150	8	1.1	0.9;
	249	1	-0	-0	0	26.3	0	1.00168844	-42.8039103	220	4	1.1	0.9;
	257	1	113.9	24.5	0	6.72	0	1.03396152	-46.1366044	220	4	1.1	0.9;
	261	1	-0	0	0	1.29	0	1.05685006	-45.6285164	380	10	1.1	0.9;
	264	1	38.74	9	0	0.57	0	1.01504907	-46.8441015	220	4	1.1	0.9;
	266	1	0	-0	0	140.96	0	1.05805612	-42.3292726	380	4	1.1	0.9;
	267	1	103.8	2.7	0	3.33	0	1.01627282	-51.4825126	220	4	1.1	0.9;
	268	1	-0.13	-1	0	0	0	1.04664379	27.5830431	220	8	1.1	0.9;
	271	1	96.7	26.8	0	0	0	1.0397166	-6.87698197	150	2	1.1	0.9;
	275	1	102.1	25.3	0	1.11	0	1.01339343	2.6203802	150	8	1.1	0.9;
	280	1	119.6	29.6	0	5.34	0	1.03184439	-10.9897914	220	5	1.1	0.9;
	281	1	-0	-0	0	18.07	0	1.03502782	14.4994016	380	8	1.1	0.9;
	283	1	27.33	11.9	0	1.17	0	1.03605479	-11.622987	220	5	1.1	0.9;
	284	1	191.2	-3.4	0	19.21	0	1.02375905	-48.9012525	220	4	1.1	0.9;
	292	1	13.82	1.4	0	0.7	0	1.04292502	-14.666296	220	5	1.1	0.9;
	297	1	23.73	9.4	0	1.45	0	1.02593582	5.91807588	150	8	1.1	0.9;
	299	2	0	0	0	0	0	1.046197	-46.2903879	380	4	1.1	0.9;
	304	1	2.2	0.5	0	0.21	0	0.994432023	-54.2550193	150	10	1.1	0.9;
	305	1	103	12	0	0.63	0	1.06566975	-32.398594	220	5	1.1	0.9;
	306	1	-0	0	0	4.76	0	1.02796679	-18.3888712	220	5	1.1	0.9;
	311	1	42.05	17.2	0	1.31	0	1.00331851	0.255622596	150	8	1.1	0.9;
	312	1	-0.16	-2.91	0	0.43	0	1.05568189	12.9544909	110	8	1.1	0.9;
	314	1	163.1	46.3	0	10.6	0	0.999499298	-15.8465995	220	5	1.1	0.9;
	315	1	-0	-0	0	2.13	0	1.02685373	-36.3858766	220	10	1.1	0.9;
	317	1	-0	-0	0.045946	-1.82203	0	1.01773984	4.59629443	380	2	1.1	0.9;
	322	1	303.8	85.4	0	3.63	0	0.963929143	-44.7100222	220	10	1.1	0.9;
	326	1	0	0	0	0	0	1.04677673	27.6299289	220	8	1.1	0.9;
	333	1	524.5	43	0	6.85	0	1.01078352	-42.1010235	220	5	1.1	0.9;
	338	2	0	0	0	0	0	1.049578	-6.04479558	220	5	1.1	0.9;
	344	1	372.8	147.5	0	27.73	0	1.02291987	-0.22113084	150	8	1.1	0.9;
	346	1	197.5	48.3	0	0.71	0	1.03909874	-20.9828014	220	5	1.1	0.9;
	349	1	-0	0	0	15.15	0	1.04730689	9.74373003	150	8	1.1	0.9;
	350	1	110.4	26.2	0	5.62	0	1.04255624	-23.9177284	220	5	1.1	0.9;
	351	1	-0.15	-1.93	0	0	0	1.02797782	19.6206469	220	8	1.1	0.9;
	352	2	0	0	0	0	0	1.054691	0.76286259	380	5	1.1	0.9;
	360	1	35.54	11.5	0	3.65	0	1.04842825	12.6744581	110	8	1.1	0.9;
	367	1	65.17	-51.5	0	4.85	0	1.06953542	-23.2076349	220	5	1.1	0.9;
	369	1	-0	0	0	3.78	0	1.04509678	14.6667363	220	8	1.1	0.9;
	370	1	56.76	23.2	0	0.49	0	1.00061441	0.0641814503	150	8	1.1	0.9;
	377	1	-0.18	-1	0	0	0	1.02162015	11.6226969	150	8	1.1	0.9;
	380	1	-95.71	-2.8	0	7.25	0	1.00431414	-33.1941999	220	10	1.1	0.9;
	385	1	-0	-0	0	105.84	0	1.04466369	-49.6658079	380	4	1.1	0.9;
	387	1	-0.19	-4.38	0	0	0	1.04047592	7.89000058	150	8	1.1	0.9;
	389	2	0	0	0	0	0	1.020856	-41.1543028	150	10	1.1	0.9;
	392	1	134.1	34.2	0	0.75	0	1.00602458	0.279557821	150	8	1.1	0.9;
	395	1	-0	-0	0	7.85	0	1.03414047	15.7919223	380	8	1.1	0.9;
	401	1	56.5	36.29	0	3.08	0	1.02820896	-14.1783564	220	5	1.1	0.9;
	408	1	129.1	7.4	0	0.04	0	1.04148467	-11.1189046	220	5	1.1	0.9;
	410	1	170.89	50.38	0	6.44	0	1.02329395	-26.7000312	220	5	1.1	0.9;
	413	2	0	0	0	0	0	1.052152	-6.16240621	220	5	1.1	0.9;
	415	1	4.71	0.7	0	11.39	0	1.02917008	-52.0589128	220	4	1.1	0.9;
	416	1	70.68	13.5	0	6.96	0	1.04177081	-6.76256494	220	5	1.1	0.9;
	420	1	0	0	0	0	0	1.0497983	19.0723023	380	8	1.1	0.9;
	425	1	-0	0	0	2.72	0	1.00773062	8.57637407	380	1	1.1	0.9;
	426	1	123.1	6.5	0	3.25	0	1.04020953	-18.2267057	220	5	1.1	0.9;
	427	1	-0	0	0	1.24	0	1.077855	-35.9326894	380	1	1.1	0.9;
	429	1	26.93	-22.4	0	4.95	0	1.01927407	-48.7146264	220	4	1.1	0.9;
	432	1	-0	-0	0	68.517663	0	1.04550277	2.53907626	380	5	1.1	0.9;
	440	2	0	0	0	0	0	1.029422	-36.5299227	220	4	1.1	0.9;
	441	1	-0	0	0.199768	27.888516	0	1.03716884	-52.2337896	380	10	1.1	0.9;
	442	1	0	0	0	0	0	1.01335457	-46.4637695	220	4	1.1	0.9;
	444	1	0	-0	0	2.45	0	1.036757	-11.6805574	220	5	1.1	0.9;
	445	1	36.74	10.3	0	8.1	0	1.02202594	-44.9530493	220	4	1.1	0.9;
	449	1	0	0	0	29.42	0	1.02111855	-8.03792842	380	5	1.1	0.9;
	453	2	0	0	0	0	0	1.021096	-7.72336139	380	5	1.1	0.9;
	455	1	274.32	5.66	0	13.24	0	1.03938676	-30.7835099	220	5	1.1	0.9;
	472	1	336.2	131.6	0	64.01	0	1.04981591	8.5648544	150	8	1.1	0.9;
	473	1	-22.95	-3.72	0	14.34	0	1.02646972	-46.1051641	220	4	1.1	0.9;
	477	1	0	0	0	70.37	0	1.0493799	-42.3170256	380	4	1.1	0.9;
	481	1	-0	0	0	17.44	0	1.02368676	-48.3975316	220	4	1.1	0.9;
	483	1	57.26	15.6	0	3.43	0	1.02297027	-49.9418098	220	4	1.1	0.9;
	486	1	7.01	2	0	0.44	0	1.01538928	4.70662201	150	8	1.1	0.9;
	489	2	0	0	0	0	0	1.012805	-47.6531634	220	4	1.1	0.9;
	490	1	20.52	4	0	2.77	0	1.03634356	-22.6266705	220	5	1.1	0.9;
	496	1	-0	-0	0	10.04	0	1.01846545	11.7512252	150	8	1.1	0.9;
	500	1	144.4	35.5	0	7.66	0	1.03797371	-15.0859065	220	5	1.1	0.9;
	502	1	-0	0	0	1.96	0	1.04396994	-6.56341665	220	5	1.1	0.9;
	506	1	-0	0	0	0.4	0	1.06282131	-8.9448204	380	5	1.1	0.9;
	509	1	77.29	7	0	17.6	0	1.01594466	-60.5387705	220	4	1.1	0.9;
	513	1	57.46	17.1	0	1.61	0	1.03882819	-7.32699515	220	5	1.1	0.9;
	516	2	0	0	0	0	0	1.074804	-33.214805	220	5	1.1	0.9;
	519	1	207.2	9.4	0	8.77	0	1.02670068	-50.6798015	220	4	1.1	0.9;
	520	1	118.5	20.4	0	2.57	0	1.04828247	-27.1499454	220	5	1.1	0.9;
	523	1	189.9	74.7	0	26.2	0	1.04321647	7.91073849	150	8	1.1	0.9;
	527	1	277.7	45.4	0	0.7	0	1.01438777	-46.6738743	220	4	1.1	0.9;
	536	1	87.8	-1.4	0.079073	36.047349	0	1.05963943	-48.5055201	380	10	1.1	0.9;
	539	1	57.96	18.9	0	14.91	0	1.01396593	3.67175715	150	8	1.1	0.9;
	544	1	79.69	39.6	0	18.83	0	1.03905168	-51.9695177	380	10	1.1	0.9;
	548	1	30.93	8.9	0	0.45	0	1.03323472	17.2425136	110	8	1.1	0.9;
	549	1	0	-0	0	5.15	0	1.07160827	-10.5345828	220	5	1.1	0.9;
	550	1	0	-0	0	10	0	1.04002675	-45.7595574	220	4	1.1	0.9;
	552	1	180.8	90.8	0	2.42	0	0.969248687	-43.4018549	150	10	1.1	0.9;
	554	1	0	-0	0	1.97	0	1.02042155	-20.5695532	220	5	1.1	0.9;
	556	1	16.52	9	0	1.17	0	1.03670309	-22.3738165	220	5	1.1	0.9;
	558	1	-0.18	-3.57	0	0	0	1.01715334	18.2637961	150	8	1.1	0.9;
	559	1	42.25	16.6	0	0	0	1.03525736	6.75452923	150	8	1.1	0.9;
	561	1	0	-0	0	0.32	0	1.05190511	-11.091433	220	5	1.1	0.9;
	564	2	0	0	0	0	0	1.069692	-47.0345102	220	5	1.1	0.9;
	575	1	0	-0	0	0.67	0	1.04479626	-10.6053684	220	5	1.1	0.9;
	577	1	-0.13	-1	0	0	0	1.04589232	27.4995407	220	8	1.1	0.9;
	579	1	17.32	6.6	0	16.52	0	1.02155685	-52.086379	380	4	1.1	0.9;
	583	2	0	0	0	0	0	1.043394	-15.5947794	220	5	1.1	0.9;
	585	1	21.12	8.3	0	4.26	0	1.03266779	5.38720684	150	8	1.1	0.9;
	593	1	-0	0	0	29.2	0	1.05458367	11.677031	380	8	1.1	0.9;
	594	1	67.57	17	0	5.75	0	1.03825253	-8.41551553	220	5	1.1	0.9;
	595	1	47.55	5.3	0	7.59	0	1.02863068	-50.6754892	220	4	1.1	0.9;
	597	1	33.34	15.7	0	64.15	0	1.05757738	-48.0384797	380	4	1.1	0.9;
	601	1	140.6	42.6	0	5.71	0	1.03973062	-14.3430543	220	5	1.1	0.9;
	602	1	110.8	-8.8	0	3.15	0	1.02298327	-47.4050955	220	4	1.1	0.9;
	604	1	33.24	4.4	0	24.54	0	0.996501956	-12.4640365	380	5	1.1	0.9;
	608	1	150.9	10.4	0	4.77	0	1.06718405	-32.6445377	220	5	1.1	0.9;
	609	1	-0	-0	0	5.67	0	1.02259401	-14.8280413	220	5	1.1	0.9;
	610	1	-0	0	0	0.91	0	0.990248016	-55.9497045	150	10	1.1	0.9;
	615	2	0	0	0	0	0	1.06611	-10.5846432	220	5	1.1	0.9;
	616	2	0	0	0	0	0	1.049295	-12.9333904	220	5	1.1	0.9;
	618	2	0	0	0	0	0	1.028233	-49.0476588	380	4	1.1	0.9;
	619	1	72.88	14.4	0	2.96	0	1.0438859	-25.0297995	220	5	1.1	0.9;
	621	1	21.42	8.1	0	7.38	0	1.01940006	-51.9809332	220	4	1.1	0.9;
	628	2	0	0	0	0	0	0.98494	-35.0280486	220	10	1.1	0.9;
	639	2	0	0	0	0	0	1.046182	-30.4432154	220	5	1.1	0.9;
	641	1	45.32	18.5	0	0.74	0	1.0382993	-13.7739245	220	5	1.1	0.9;
	642	2	0	0	0	0	0	1.036757	-50.4962458	380	4	1.1	0.9;
	643	1	15.52	6.3	0	0.6	0	1.00720194	0.525650745	150	8	1.1	0.9;
	649	1	40.94	19.2	0	5.2	0	1.02488155	-48.7121227	220	4	1.1	0.9;
	650	1	17.22	4.4	0	1.71	0	1.02056084	13.507057	110	8	1.1	0.9;
	656	1	-0.15	-1.93	0	0	0	1.02794998	19.6223421	220	8	1.1	0.9;
	658	1	258.4	66.7	0	5.87	0	1.03322619	-17.2833706	220	5	1.1	0.9;
	659	1	-0	-0	0.174507	73.977052	0	1.01741948	4.51142222	380	2	1.1	0.9;
...
];

%% generator data
%	bus	Pg	Qg	Qmax	Qmin	Vg	mBase	status	Pmax	Pmin	Pc1	Pc2	Qc1min	Qc1max	Qc2min	Qc2max	ramp_agc	ramp_10	ramp_30	ramp_q	apf
mpc.gen = [
	32	8	5.91	5.91	-4.56	1.006206	100	1	16.2	0	0	0	0	0	0	0	0	0	0	0	0;
	33	5.3	0.587528701	2.27	-1.08	1.031909	100	1	5.38	0	0	0	0	0	0	0	0	0	0	0	0;
	39	34.3	5.20048442	17.76	-7.14	1.005551	100	1	40	0	0	0	0	0	0	0	0	0	0	0	0;
	51	-144.5	4.93480319	5.48	-4.19	1.01198	100	1	100	-192.67	0	0	0	0	0	0	0	0	0	0	0;
	124	861.3	56.9268048	440.32	-172.59	1.079291	100	1	1000	333.33	0	0	0	0	0	0	0	0	0	0	0;
	150	67.29	-3.99354858	77.09	-22.54	1.062067	100	1	160	0	0	0	0	0	0	0	0	0	0	0	0;
	179	-179.2	52.64	52.64	-51.72	1.048817	100	1	100	-238.93	0	0	0	0	0	0	0	0	0	0	0;
	194	268.6	43.402346	130.19	-53.53	1.029584	100	1	300	100	0	0	0	0	0	0	0	0	0	0	0;
	201	5.2	2.27	2.27	-1.07	1.024675	100	1	5.37	0	0	0	0	0	0	0	0	0	0	0	0;
	221	-155.39	58.6712784	183.92	-65.3	0.996091	100	1	100	-207.18	0	0	0	0	0	0	0	0	0	0	0;
	299	975.9	130.819034	721.25	-258.71	1.046197	100	1	1600	533.33	0	0	0	0	0	0	0	0	0	0	0;
	338	83.7	1.69781707	55.54	-19.16	1.049578	100	1	120	0	0	0	0	0	0	0	0	0	0	0	0;
	352	1250.4	285.537884	926.35	-297.68	1.054691	100	1	2000	666.67	0	0	0	0	0	0	0	0	0	0	0;
	389	69	17.1630018	56.73	-17.84	1.020856	100	1	120	0	0	0	0	0	0	0	0	0	0	0	0;
	413	231	26.1115128	124.12	-49.84	1.052152	100	1	280	0	0	0	0	0	0	0	0	0	0	0	0;
	440	83.1	-0.805626596	55.73	-19.01	1.029422	100	1	120	0	0	0	0	0	0	0	0	0	0	0	0;
	442	-40.35	1.95	1.95	-0.93	1.013689	100	1	100	-53.8	0	0	0	0	0	0	0	0	0	0	0;
	453	260.1	61.5012065	257.23	-74.4	1.021096	100	1	540	0	0	0	0	0	0	0	0	0	0	0	0;
	489	-107.4	5.99003133	6.28	-4.82	1.012805	100	1	100	-143.2	0	0	0	0	0	0	0	0	0	0	0;
	516	539.4	195.747484	261.79	-106.67	1.074804	100	1	600	200	0	0	0	0	0	0	0	0	0	0	0;
	564	-51.67	8.78154713	18.47	-19.35	1.069692	100	1	100	-68.89	0	0	0	0	0	0	0	0	0	0	0;
	583	-270	7.60971282	17.88	-7.03	1.043394	100	1	100	-360	0	0	0	0	0	0	0	0	0	0	0;
	615	38.2	1.27990444	17.09	-7.79	1.06611	100	1	40	0	0	0	0	0	0	0	0	0	0	0	0;
	616	379.2	73.8791111	217.9	-81.16	1.049295	100	1	480	160	0	0	0	0	0	0	0	0	0	0	0;
	618	670.3	-1.91582718	351.18	-139.11	1.028233	100	1	800	266.67	0	0	0	0	0	0	0	0	0	0	0;
	628	152.4	50.2842041	78.79	-31.69	0.98494	100	1	180	0	0	0	0	0	0	0	0	0	0	0	0;
	639	-46.2	133.298467	135.52	-38.9	1.046182	100	1	100	-61.6	0	0	0	0	0	0	0	0	0	0	0;
	642	63.33	29.4516218	90.13	-93.03	1.036757	100	1	276.09	0	0	0	0	0	0	0	0	0	0	0	0;
	682	37.4	8.13495648	38.77	-11.06	1.065269	100	1	80	0	0	0	0	0	0	0	0	0	0	0	0;
	686	-21.65	-6.11421088	34.75	-34.26	1.018064	100	1	100	-28.86	0	0	0	0	0	0	0	0	0	0	0;
	698	274.8	12.4289111	129.94	-53.91	1.001541	100	1	300	100	0	0	0	0	0	0	0	0	0	0	0;
	709	16	22.23	22.23	-20.83	1.072146	100	1	65.3	0	0	0	0	0	0	0	0	0	0	0	0;
	739	465.7	103.974855	212.97	-93.45	1.040583	100	1	500	166.67	0	0	0	0	0	0	0	0	0	0	0;
	749	198.88	7.67907265	105.69	-43.84	1.0548	100	1	240	0	0	0	0	0	0	0	0	0	0	0	0;
	751	65.9	7.05017149	136.94	-47.24	1.023645	100	1	300	0	0	0	0	0	0	0	0	0	0	0	0;
	757	116.7	51.3	51.3	-23.41	1.016623	100	1	120	0	0	0	0	0	0	0	0	0	0	0	0;
	776	-111.4	10.3990663	18.16	-6.73	1.029038	100	1	100	-148.53	0	0	0	0	0	0	0	0	0	0	0;
	778	16.5	4.98681247	12.37	-9.36	1.051035	100	1	33.58	0	0	0	0	0	0	0	0	0	0	0	0;
	780	50.8	18.054329	37.43	-12.32	1.006139	100	1	80	0	0	0	0	0	0	0	0	0	0	0	0;
	795	58.4	10.0402617	36.75	-13.04	1.039638	100	1	80	0	0	0	0	0	0	0	0	0	0	0	0;
	803	-89.2	14.7709592	74.03	-25.54	1.04396	100	1	100	-118.93	0	0	0	0	0	0	0	0	0	0	0;
	807	1597.5	0.980730322	864.47	-360.97	1.057043	100	1	2000	666.67	0	0	0	0	0	0	0	0	0	0	0;
	823	1274.2	316.882938	926.68	-298.31	1.044347	100	1	2000	666.67	0	0	0	0	0	0	0	0	0	0	0;
	849	8.7	6.45	6.45	-4.91	1.041392	100	1	17.57	0	0	0	0	0	0	0	0	0	0	0	0;
	851	59.56	50.8903572	96.64	-27.81	1.006263	100	1	200	0	0	0	0	0	0	0	0	0	0	0	0;
	858	855.6	187.698731	440.67	-172.15	1.035299	100	1	1000	333.33	0	0	0	0	0	0	0	0	0	0	0;
	891	1702.8	691.400349	1097.41	-373.91	1.063198	100	1	2400	800	0	0	0	0	0	0	0	0	0	0	0;
	913	1249.4	762.508916	772.11	-269.94	1.032774	100	1	1700	566.67	0	0	0	0	0	0	0	0	0	0	0;
	916	230.2	-21.9239844	134.45	-49.76	1.024009	100	1	300	0	0	0	0	0	0	0	0	0	0	0	0;
	930	679.6	-65.2277027	406.66	-144.75	1.063763	100	1	900	300	0	0	0	0	0	0	0	0	0	0	0;
	972	1221.2	407.179458	934.73	-291.52	1.068998	100	1	2000	666.67	0	0	0	0	0	0	0	0	0	0	0;
	976	21.3	36.02	36.02	-35.35	1.029847	100	1	107.83	0	0	0	0	0	0	0	0	0	0	0	0;
	1001	92.1	55.02	55.02	-19.81	1.073365	100	1	120	0	0	0	0	0	0	0	0	0	0	0	0;
	1002	171	22.8496198	89.55	-35.15	1.040649	100	1	200	0	0	0	0	0	0	0	0	0	0	0	0;
	1021	-179.3	29.7868589	58.34	-16.23	1.019135	100	1	100	-239.07	0	0	0	0	0	0	0	0	0	0	0;
	1030	164.94	23.0174866	71.66	-27.89	1.00979	100	1	400	100	0	0	0	0	0	0	0	0	0	0	0;
	1036	202.5	0.0537405531	137.39	-46.45	1.038657	100	1	300	100	0	0	0	0	0	0	0	0	0	0	0;
	1043	829.5	42.0686674	387.88	-163.4	1.029789	100	1	900	300	0	0	0	0	0	0	0	0	0	0	0;
	1083	91.8	11.822157	54.91	-19.88	1.046149	100	1	120	0	0	0	0	0	0	0	0	0	0	0	0;
	1093	837	105.593888	550.69	-185.15	1.026457	100	1	1200	400	0	0	0	0	0	0	0	0	0	0	0;
	1100	58.2	5.37407642	36.8	-13.01	1.045212	100	1	80	0	0	0	0	0	0	0	0	0	0	0	0;
	1102	-124.15	22.7553031	38.05	-11.59	1.051902	100	1	100	-165.54	0	0	0	0	0	0	0	0	0	0	0;
	1121	289.79	-2.9000284	158.2	-62.81	1.019674	100	1	360	0	0	0	0	0	0	0	0	0	0	0	0;
	1173	-124.7	1.85	1.85	-0.88	1.026125	100	1	100	-166.27	0	0	0	0	0	0	0	0	0	0	0;
	1174	26.8	6.38944793	18.61	-6.28	1.004865	100	1	40	0	0	0	0	0	0	0	0	0	0	0	0;
	1175	309.54	18.4094639	108.35	-39.12	1.040018	100	1	700	200	0	0	0	0	0	0	0	0	0	0	0;
	1237	1504.8	358.20743	906.61	-319.44	1.105045	100	1	2000	666.67	0	0	0	0	0	0	0	0	0	0	0;
	1241	46.13	22.29	22.29	-20.98	1.021438	100	1	65.63	0	0	0	0	0	0	0	0	0	0	0	0;
	1251	837	100.959416	550.69	-185.15	1.0265	100	1	1200	400	0	0	0	0	0	0	0	0	0	0	0;
	1271	-100.5	-6.14724781	32.54	-32.11	1.015573	100	1	100	-134	0	0	0	0	0	0	0	0	0	0	0;
	1295	-124.1	10.3833471	36.92	-12.88	1.038943	100	1	100	-165.47	0	0	0	0	0	0	0	0	0	0	0;
	1341	67.2	34.8964154	57.03	-17.62	1.030396	100	1	120	0	0	0	0	0	0	0	0	0	0	0	0;
	1354	-246.5	23.2176652	38.08	-11.73	1.04168	100	1	100	-328.67	0	0	0	0	0	0	0	0	0	0	0;
	1391	26.2	17.9099232	18.74	-6.17	1.028915	100	1	40	0	0	0	0	0	0	0	0	0	0	0	0;
	1399	-174.6	11.64	11.64	-10.2	1.052722	100	1	100	-232.8	0	0	0	0	0	0	0	0	0	0	0;
	1409	628.19	-22.3378269	338.66	-151.76	1.024907	100	1	800	266.67	0	0	0	0	0	0	0	0	0	0	0;
	1422	-101	18.09	18.09	-6.79	1.045292	100	1	100	-134.67	0	0	0	0	0	0	0	0	0	0	0;
	1436	49.4	3.16983762	37.72	-12.09	1.049261	100	1	80	0	0	0	0	0	0	0	0	0	0	0	0;
	1458	1588	-122.258566	895.23	-330.78	1.05352	100	1	2000	666.67	0	0	0	0	0	0	0	0	0	0	0;
	1475	783.9	-100.016242	394.45	-157	1.025403	100	1	900	300	0	0	0	0	0	0	0	0	0	0	0;
	1478	62.6	10.0825011	36.4	-13.44	1.046165	100	1	80	0	0	0	0	0	0	0	0	0	0	0	0;
	1498	5.2	2.25	2.25	-1.06	1.078389	100	1	5.31	0	0	0	0	0	0	0	0	0	0	0	0;
	1570	121.4	3.92049616	93.16	-29.49	1.079057	100	1	200	66.67	0	0	0	0	0	0	0	0	0	0	0;
	1604	50.6	14.7474105	37.66	-12.17	1.044277	100	1	80	0	0	0	0	0	0	0	0	0	0	0	0;
	1618	-136.6	21.27	21.27	-20.07	1.079319	100	1	100	-182.13	0	0	0	0	0	0	0	0	0	0	0;
	1642	50.4	37.74	37.74	-12.11	1.031925	100	1	80	0	0	0	0	0	0	0	0	0	0	0	0;
	1680	1250.4	303.396589	928.89	-296.1	1.044209	100	1	2000	666.67	0	0	0	0	0	0	0	0	0	0	0;
	1685	62.7	16.5907254	57.41	-17.22	1.005778	100	1	120	0	0	0	0	0	0	0	0	0	0	0	0;
	1697	-189	31.94	31.94	-31.24	1.041486	100	1	100	-252	0	0	0	0	0	0	0	0	0	0	0;
	1708	860.8	152.512242	439.37	-173.3	1.037844	100	1	1000	333.33	0	0	0	0	0	0	0	0	0	0	0;
	1721	28.1	1.73089031	18.52	-6.39	1.061536	100	1	40	0	0	0	0	0	0	0	0	0	0	0	0;
	1747	835.5	314.269152	387.67	-163.73	1.055274	100	1	900	300	0	0	0	0	0	0	0	0	0	0	0;
	1754	40	16.99	16.99	-7.92	1.040804	100	1	41.06	0	0	0	0	0	0	0	0	0	0	0	0;
	1788	430.2	272.25	272.25	-94.92	1.018729	100	1	600	200	0	0	0	0	0	0	0	0	0	0	0;
	1793	-90.3	1.55678647	34.64	-15.2	1.023406	100	1	100	-120.4	0	0	0	0	0	0	0	0	0	0	0;
	1794	1250.4	268.565515	926.35	-297.68	1.052726	100	1	2000	666.67	0	0	0	0	0	0	0	0	0	0	0;
	1808	-0.6	2.14902017	111.23	-38.16	1.047818	100	1	100	-0.8	0	0	0	0	0	0	0	0	0	0	0;
	1850	2.89	11.52	11.52	-10.09	1.020156	100	1	32.97	0	0	0	0	0	0	0	0	0	0	0	0;
	1851	15.6	-0.547000832	11.76	-8.89	1.0492	100	1	31.92	0	0	0	0	0	0	0	0	0	0	0	0;
	1852	-241.8	24.304782	58.16	-16.52	1.056131	100	1	100	-322.4	0	0	0	0	0	0	0	0	0	0	0;
	1888	573.68	39.8627239	396.02	-155.83	1.043102	100	1	912.78	312.78	0	0	0	0	0	0	0	0	0	0	0;
	1890	1526	129.24966	686.73	-294.62	1.050852	100	1	1600	533.33	0	0	0	0	0	0	0	0	0	0	0;
	1898	246	11.0744868	133.11	-51.25	1.077705	100	1	300	0	0	0	0	0	0	0	0	0	0	0	0;
	1909	-31.18	7.23047234	38.67	-11.1	1.021788	100	1	100	-41.57	0	0	0	0	0	0	0	0	0	0	0;
	1914	115.5	-35.0534088	160.36	-150.95	1.038338	100	1	472.16	39.35	0	0	0	0	0	0	0	0	0	0	0;
	1947	-17.02	2.05	2.05	-0.97	1.056511	100	1	100	-22.7	0	0	0	0	0	0	0	0	0	0	0;
	1959	31	1.61984571	18.14	-6.75	1.066953	100	1	40	0	0	0	0	0	0	0	0	0	0	0	0;
	1999	141.6	6.03907635	80.51	-30.07	1.080207	100	1	180	0	0	0	0	0	0	0	0	0	0	0	0;
	2030	576	166.192006	257	-110.85	1.072679	100	1	600	200	0	0	0	0	0	0	0	0	0	0	0;
	2035	855.6	172.403877	441.85	-171.27	1.034553	100	1	1000	333.33	0	0	0	0	0	0	0	0	0	0	0;
	2050	836.2	-27.8017146	962.2	-263.65	1.008592	100	1	2000	666.67	0	0	0	0	0	0	0	0	0	0	0;
	2085	176	30.8147532	88.39	-36.19	1.03273	100	1	200	0	0	0	0	0	0	0	0	0	0	0	0;
	2091	33.9	4.4890019	17.88	-7.04	1.026543	100	1	40	0	0	0	0	0	0	0	0	0	0	0	0;
	2096	1063.5	4.23939774	522.74	-212.37	1.050714	100	1	1200	400	0	0	0	0	0	0	0	0	0	0	0;
	2107	1269.4	661.9	661.9	-257.62	1.048234	100	1	1500	500	0	0	0	0	0	0	0	0	0	0	0;
	2150	498.4	99.0551206	266.17	-101.5	1.064827	100	1	600	200	0	0	0	0	0	0	0	0	0	0	0;
	2177	-121.3	37.8852045	58.35	-16.26	1.070558	100	1	100	-161.73	0	0	0	0	0	0	0	0	0	0	0;
	2193	7.9	7.47	7.47	-2.56	1.014181	100	1	16.12	0	0	0	0	0	0	0	0	0	0	0	0;
	2197	-53.29	19.51	19.51	-14.74	1.036195	100	1	100	-71.05	0	0	0	0	0	0	0	0	0	0	0;
	2206	204.3	27.282758	137.29	-46.58	1.020141	100	1	300	100	0	0	0	0	0	0	0	0	0	0	0;
	2225	-83.5	2.27	2.27	-1.04	1.02967	100	1	100	-111.33	0	0	0	0	0	0	0	0	0	0	0;
	2236	-38.45	2.23	2.23	-1.07	1.023164	100	1	100	-51.26	0	0	0	0	0	0	0	0	0	0	0;
	2267	362	-74.9961776	228.16	-78.83	1.000857	100	1	500	166.67	0	0	0	0	0	0	0	0	0	0	0;
	2276	38.9	-21.0916619	41.67	-36.5	1.055141	100	1	119.3	0	0	0	0	0	0	0	0	0	0	0	0;
	2291	110.5	18.6661631	95.69	-28.93	1.068687	100	1	200	0	0	0	0	0	0	0	0	0	0	0	0;
	2335	431.2	240.001564	273.49	-94.1	1.040978	100	1	600	200	0	0	0	0	0	0	0	0	0	0	0;
	2359	78.2	30.4116474	34.35	-15.5	1.025004	100	1	80	0	0	0	0	0	0	0	0	0	0	0	0;
	2412	67.3	-77.8807349	134.54	-136.29	1.016849	100	1	409.09	0	0	0	0	0	0	0	0	0	0	0	0;
	2421	-320.4	30.4206986	37.39	-12.45	1.047704	100	1	100	-427.2	0	0	0	0	0	0	0	0	0	0	0;
	2425	-100.5	17.7696184	54.3	-20.49	1.043025	100	1	100	-134	0	0	0	0	0	0	0	0	0	0	0;
	2426	-43.2	-19.2510115	105.34	-99.02	1.040828	100	1	100	-57.6	0	0	0	0	0	0	0	0	0	0	0;
	2446	1367	296.127295	921.62	-304.73	1.053565	100	1	2000	666.67	0	0	0	0	0	0	0	0	0	0	0;
	2460	37.79	22.5454938	38.01	-11.74	0.983266	100	1	80	0	0	0	0	0	0	0	0	0	0	0	0;
	2468	46.8	4.86249204	38.02	-11.81	1.049474	100	1	80	0	0	0	0	0	0	0	0	0	0	0	0;
	2481	31.8	14.1923741	39.12	-10.71	1.041748	100	1	80	0	0	0	0	0	0	0	0	0	0	0	0;
	2489	286.5	-14.9552826	162.4	-61.79	1.049212	100	1	360	0	0	0	0	0	0	0	0	0	0	0	0;
	2517	3.85	-6.14154843	78.13	-77.07	1.017237	100	1	234.52	0	0	0	0	0	0	0	0	0	0	0	0;
	2550	54.3	3.29419099	58.23	-16.49	1.050935	100	1	120	0	0	0	0	0	0	0	0	0	0	0	0;
	2572	411.2	79.7847698	276.19	-91.63	1.044905	100	1	600	200	0	0	0	0	0	0	0	0	0	0	0;
	2600	76.48	16.0097476	76.08	-23.59	1.041924	100	1	160	0	0	0	0	0	0	0	0	0	0	0	0;
	2627	1367	298.690054	921.52	-304.79	1.052984	100	1	2000	666.67	0	0	0	0	0	0	0	0	0	0	0;
	2642	1897	-31.8747163	848.76	-377.67	1.054923	100	1	2000	666.67	0	0	0	0	0	0	0	0	0	0	0;
	2653	41.92	49.5286909	51.94	-22.8	1.036409	100	1	120	0	0	0	0	0	0	0	0	0	0	0	0;
	2658	308.31	-4.69122086	124.68	-59.39	1.026597	100	1	700	200	0	0	0	0	0	0	0	0	0	0	0;
	2660	144.9	13.4849124	79.69	-30.77	1.013897	100	1	180	0	0	0	0	0	0	0	0	0	0	0	0;
	2686	-72.9	-32.2580861	69.01	-69.9	1.020441	100	1	100	-97.2	0	0	0	0	0	0	0	0	0	0	0;
	2719	77.6	-8.67183756	70.15	-58.1	1.039499	100	1	196.72	0	0	0	0	0	0	0	0	0	0	0	0;
	2764	575.4	142.809885	416.7	-134.5	1.05096	100	1	900	300	0	0	0	0	0	0	0	0	0	0	0;
	2786	1221.2	392.942087	934.81	-291.47	1.069288	100	1	2000	666.67	0	0	0	0	0	0	0	0	0	0	0;
	2797	-95.1	5.72231451	88.33	-36.33	1.044662	100	1	100	-126.8	0	0	0	0	0	0	0	0	0	0	0;
	2799	66.8	-1.1987184	77.91	-21.66	1.055463	100	1	160	0	0	0	0	0	0	0	0	0	0	0	0;
	2800	1048.2	-18.4335952	525.34	-209.84	1.030206	100	1	1200	400	0	0	0	0	0	0	0	0	0	0	0;
	2816	1250.4	300.762527	926.26	-297.74	1.054536	100	1	2000	666.67	0	0	0	0	0	0	0	0	0	0	0;
	2817	71.8	4.22384897	34.8	-14.94	0.991705	100	1	80	0	0	0	0	0	0	0	0	0	0	0	0;
	2841	80.7	-2.82235294	55.98	-18.76	1.079986	100	1	120	0	0	0	0	0	0	0	0	0	0	0	0;
	2842	31.6	6.13313308	18.19	-6.74	1.044122	100	1	40	0	0	0	0	0	0	0	0	0	0	0	0;
	2853	126	10.2990502	72.02	-27.47	1.000604	100	1	160	0	0	0	0	0	0	0	0	0	0	0	0;
	2872	4.5	1.32725426	3.31	-2.54	1.060615	100	1	9.05	0	0	0	0	0	0	0	0	0	0	0	0;
	2878	8.95	-6.64715685	72.95	-68.71	1.05418	100	1	214.86	0	0	0	0	0	0	0	0	0	0	0	0;
	2886	60.9	12.4969401	57.69	-17.02	1.052878	100	1	120	0	0	0	0	0	0	0	0	0	0	0	0;
	2896	-223.4	1.52	1.52	-0.73	1.011629	100	1	100	-297.87	0	0	0	0	0	0	0	0	0	0	0;
	2902	20.9	1.5832849	19.19	-5.72	1.061022	100	1	40	0	0	0	0	0	0	0	0	0	0	0	0;
	2930	53.2	2.61466377	37.24	-12.54	1.049271	100	1	80	0	0	0	0	0	0	0	0	0	0	0	0;
	2934	3.4	0.485998966	2.51	-1.91	1.052968	100	1	6.83	0	0	0	0	0	0	0	0	0	0	0	0;
	2946	-222.1	1.83	1.83	-0.87	1.020023	100	1	100	-296.13	0	0	0	0	0	0	0	0	0	0	0;
	2985	46.6	-57.7918651	184.46	-132.67	1.05077	100	1	493.35	0	0	0	0	0	0	0	0	0	0	0	0;
	3018	162.5	-4.90575985	89.61	-34.82	1.043371	100	1	200	0	0	0	0	0	0	0	0	0	0	0	0;
	3028	855.7	170.887556	441.85	-171.27	1.034318	100	1	1000	333.33	0	0	0	0	0	0	0	0	0	0	0;
	3054	210.4	147.236827	167.72	-77.11	0.999852	100	1	400	133.33	0	0	0	0	0	0	0	0	0	0	0;
	3113	-20.3	22.39	22.39	-20.99	1.072644	100	1	100	-27.07	0	0	0	0	0	0	0	0	0	0	0;
	3114	38.6	4.63419917	17.33	-7.61	1.0681	100	1	40	0	0	0	0	0	0	0	0	0	0	0	0;
	3133	85.54	10.0120266	113.97	-35.56	1.061763	100	1	240	0	0	0	0	0	0	0	0	0	0	0	0;
	3134	-136.3	-5.01840871	70.25	-29.33	1.02503	100	1	100	-181.73	0	0	0	0	0	0	0	0	0	0	0;
	3150	-31.34	5.79497243	6.66	-5.1	1.017094	100	1	100	-41.79	0	0	0	0	0	0	0	0	0	0	0;
	3157	9	3.05992963	6.78	-5.13	1.023658	100	1	18.41	0	0	0	0	0	0	0	0	0	0	0	0;
	3163	33.9	-13.4760392	67.92	-69.02	1.006379	100	1	206.86	0	0	0	0	0	0	0	0	0	0	0	0;
	3183	98.7	-2.93283218	53.7	-20.98	1.056991	100	1	120	0	0	0	0	0	0	0	0	0	0	0	0;
	3205	416.7	236.516306	243.61	-88.46	1.03763	100	1	540	0	0	0	0	0	0	0	0	0	0	0	0;
	3218	-107.4	16.7081558	36.79	-13	1.032146	100	1	100	-143.2	0	0	0	0	0	0	0	0	0	0	0;
	3233	13	0.704471931	178.47	-79.11	1.012423	100	1	420	0	0	0	0	0	0	0	0	0	0	0	0;
	3240	-42.3	-12.689367	62.23	-51.37	1.051571	100	1	100	-56.4	0	0	0	0	0	0	0	0	0	0	0;
	3291	326.4	8.64856181	229	-77.02	1.027251	100	1	500	166.67	0	0	0	0	0	0	0	0	0	0	0;
	3306	861.3	140.382079	439.2	-173.43	1.069265	100	1	1000	333.33	0	0	0	0	0	0	0	0	0	0	0;
	3324	-26.48	21.7720121	38.13	-11.64	1.016523	100	1	100	-35.3	0	0	0	0	0	0	0	0	0	0	0;
	3334	-45.5	7.08806424	34.41	-15.34	1.03247	100	1	100	-60.67	0	0	0	0	0	0	0	0	0	0	0;
	3335	-600	2044.03748	99999	-99999	1.08873	100	1	630	-630	0	0	0	0	0	0	0	0	0	0	0;
	3346	56.8	37.1	37.1	-12.76	1.014746	100	1	80	0	0	0	0	0	0	0	0	0	0	0	0;
	3353	19.07	6.67225748	38.2	-11.61	1.047796	100	1	80	0	0	0	0	0	0	0	0	0	0	0	0;
	3364	44.5	-22.0125656	47.19	-41.44	1.055303	100	1	135.27	0	0	0	0	0	0	0	0	0	0	0	0;
	3390	2.4	25.2962635	54.59	-20.19	1.041678	100	1	120	0	0	0	0	0	0	0	0	0	0	0	0;
	3416	171.3	38.3126824	76.43	-34.12	0.997085	100	1	180	0	0	0	0	0	0	0	0	0	0	0	0;
	3422	53.7	-1.40846486	58.19	-16.5	1.065868	100	1	120	0	0	0	0	0	0	0	0	0	0	0	0;
	3436	521	234.607148	550.97	-184.89	1.056276	100	1	1200	400	0	0	0	0	0	0	0	0	0	0	0;
	3492	-370.8	17.8584372	53.75	-21.08	1.04519	100	1	100	-494.4	0	0	0	0	0	0	0	0	0	0	0;
	3513	829.8	144.388115	387.88	-163.4	1.029628	100	1	900	300	0	0	0	0	0	0	0	0	0	0	0;
	3565	15.88	7.15899787	38.83	-10.97	1.079121	100	1	80	0	0	0	0	0	0	0	0	0	0	0	0;
	3580	539	193.282406	261.7	-107.36	1.075232	100	1	600	0	0	0	0	0	0	0	0	0	0	0	0;
	3582	-321.8	6.82516143	52.83	-52.04	1.045127	100	1	100	-429.07	0	0	0	0	0	0	0	0	0	0	0;
	3584	-88.4	2.07752727	19.8	-15.12	1.019651	100	1	100	-117.87	0	0	0	0	0	0	0	0	0	0	0;
	3585	50.8	18.1125684	37.43	-12.32	1.006097	100	1	80	0	0	0	0	0	0	0	0	0	0	0	0;
...
];

%% branch data
%	fbus	tbus	r	x	b	rateA	rateB	rateC	ratio	angle	status	angmin	angmax	Pf	Qf	Pt	Qt
mpc.branch = [
	5147	3097	0.0006	0.00616	0	823	0	0	0	0	1	-360	360	-81.9700	104.4541	82.0704	-103.4238;
	5147	8763	0.0005	0.0074	0	921	0	0	0	0	1	-360	360	81.9700	-85.6807	-81.9033	86.6677;
	427	5425	7e-05	0.00057	0	1711	0	0	0	0	1	-360	360	277.8988	60.4108	-277.8501	-60.0140;
	427	4704	6e-05	0.00056	0	1514	0	0	0	0	1	-360	360	-277.8988	-58.9702	277.9405	59.3592;
	5960	7431	0.003349	0.01656	0	0	0	0	0	0	1	-360	360	4.3361	2.2285	-4.3354	-2.2247;
	5960	3186	0.003409	0.016211	0	0	0	0	0	0	1	-360	360	-4.3361	0.6592	4.3368	-0.6562;
	4481	7431	0.003479	0.01586	0	0	0	0	0	0	1	-360	360	4.2380	2.3066	-4.2372	-2.3031;
	4481	3186	0.003099	0.017969	0	0	0	0	0	0	1	-360	360	-4.2380	0.4979	4.2386	-0.4948;
	5205	7833	0.00236	0.01418	0	553	0	0	0	0	1	-360	360	162.7931	3.9220	-162.1986	-0.3498;
	5205	7770	0.002169	0.015909	0	514	0	0	0	0	1	-360	360	-162.7931	-0.9327	163.3392	4.9384;
	5773	6542	0.00014	0.0012	0	0	0	0	0	0	1	-360	360	42.1777	18.3625	-42.1749	-18.3391;
	5773	7840	0.000211	0.001539	0	0	0	0	0	0	1	-360	360	-42.1777	-17.9713	42.1817	18.0011;
	5214	6542	0.000401	0.004901	0	0	0	0	0	0	1	-360	360	17.8234	8.5696	-17.8219	-8.5519;
	5214	7840	0.000219	0.00151	0	533	0	0	0	0	1	-360	360	-17.8234	-7.6131	17.8241	7.6183;
	2971	6069	0.00052	0.00407	0	1481	0	0	0	0	1	-360	360	-123.8161	133.3851	123.9912	-132.0148;
	2971	3445	0.00034	0.00502	0	1843	0	0	0	0	1	-360	360	123.8161	-122.0221	-123.7116	123.5641;
	7561	6069	0.00065	0.00698	0	1711	0	0	0	0	1	-360	360	326.7743	123.3891	-325.9774	-114.8317;
	7561	8825	0.00059	0.00806	0	1678	0	0	0	0	1	-360	360	-326.7743	-102.9483	327.4702	112.4551;
	7556	7058	0.00374	0.02095	0	800	0	0	0	0	1	-360	360	275.7700	-24.1306	-273.1545	38.7816;
	7556	4324	0.00511	0.019461	0	800	0	0	0	0	1	-360	360	-275.7700	27.5275	279.3518	-13.8867;
	132	2962	0.00064	0.00715	0	1481	0	0	0	0	1	-360	360	-239.9943	33.3947	240.3238	-29.7131;
	132	4393	0.00089	0.00712	0	1283	0	0	0	0	1	-360	360	239.9943	-9.0047	-239.5441	12.6063;
	5044	693	0.00048	0.00555	0	987	0	0	0	0	1	-360	360	-28.2248	-10.1642	28.2286	10.2087;
	5044	7860	0.00047	0.00566	0	1086	0	0	0	0	1	-360	360	28.2248	23.6504	-28.2191	-23.5821;
	6883	693	0.00046	0.00524	0	1053	0	0	0	0	1	-360	360	-30.6883	-11.1204	30.6927	11.1701;
	6883	7860	0.00052	0.00514	0	1053	0	0	0	0	1	-360	360	30.6883	25.0439	-30.6810	-24.9721;
	6494	4945	0.00029	0.00298	0	1613	0	0	0	0	1	-360	360	-512.5832	10.0523	513.2636	-3.0612;
	6494	6080	0.0003	0.00291	0	1514	0	0	0	0	1	-360	360	512.5832	-0.8652	-511.8797	7.6895;
	7146	7388	0.00042	0.02666	0	1185	0	0	0	0	1	-360	360	0.0000	0.0000	0.0000	0.0000;
	4735	5239	0.00058	0.00534	0	1876	0	0	0	0	1	-360	360	860.1986	-216.0216	-855.6163	258.2101;
	4735	3145	0.00054	0.00589	0	1843	0	0	0	0	1	-360	360	-860.1986	229.5524	864.4976	-182.6620;
	3615	8731	0.00036	0.00485	0	0	0	0	0	0	1	-360	360	545.9555	-80.9735	-544.8866	95.3744;
	3615	6246	0.00042	0.00415	0	0	0	0	0	0	1	-360	360	-545.9555	94.8338	547.2126	-82.4129;
	2549	7829	0.003349	0.02445	0	553	0	0	0	0	1	-360	360	99.8662	-32.0163	-99.5324	34.4534;
	2549	4951	0.003281	0.02493	0	553	0	0	0	0	1	-360	360	-99.8662	36.2755	100.2019	-33.7248;
	7004	3370	0	0.00046	0	757	0	0	0	0	1	-360	360	0.0000	0.0000	0.0000	0.0000;
	8381	4795	0.00053	0.00587	0	1777	0	0	0	0	1	-360	360	-315.1171	15.2900	315.5766	-10.2003;
	8381	5562	0.00055	0.00666	0	1711	0	0	0	0	1	-360	360	315.1171	5.2806	-314.6412	0.4821;
	3409	1716	0.00051	0.00614	0	0	0	0	0	0	1	-360	360	640.5238	-94.7078	-638.4399	119.7962;
	3409	6246	0.00043	0.00406	0	0	0	0	0	0	1	-360	360	-640.5238	111.5347	642.2953	-94.8080;
	1000	6145	0.002211	0.014419	0	438	0	0	0	0	1	-360	360	-34.3798	-1.0266	34.4050	1.1905;
	1000	3186	0.002169	0.013349	0	457	0	0	0	0	1	-360	360	34.3798	2.9005	-34.3550	-2.7479;
	6060	5289	0.00033	0.00101	0	823	0	0	0	0	1	-360	360	0.0000	93.4513	0.0249	-93.3752;
	7965	5289	0.00028	0.00104	0	757	0	0	0	0	1	-360	360	0.0000	92.1096	0.0205	-92.0334;
	4363	4507	0.00057	0.0071	0	1613	0	0	0	0	1	-360	360	590.9307	-120.0163	-588.9266	144.9807;
	4363	6246	0.00057	0.00697	0	1613	0	0	0	0	1	-360	360	-590.9307	139.3127	592.9625	-114.4681;
	425	7526	0.0001	0.00119	0	1810	0	0	0	0	1	-360	360	717.4888	80.5566	-716.9755	-74.4481;
	425	5674	0.0001	0.0013	0	1613	0	0	0	0	1	-360	360	-717.4888	-77.7943	718.0017	84.4618;
	4799	8581	9e-05	0.00121	0	1514	0	0	0	0	1	-360	360	221.9584	15.1456	-221.9148	-14.5591;
	4799	4337	0.0001	0.00134	0	1251	0	0	0	0	1	-360	360	-221.9584	-12.4705	222.0068	13.1191;
	4968	2154	0.00039	0.00474	0	1843	0	0	0	0	1	-360	360	516.1837	77.6544	-515.2202	-65.9438;
	4968	1747	0.00045	0.00467	0	1448	0	0	0	0	1	-360	360	-516.1837	-59.3798	517.2853	70.8115;
	7699	2154	0.00052	0.00567	0	1645	0	0	0	0	1	-360	360	385.6162	-122.7918	-384.8288	131.3771;
	7699	1689	0.00054	0.00667	0	1316	0	0	0	0	1	-360	360	-385.6162	144.0135	386.4621	-133.5649;
	3097	659	0.00073	0.00905	0	1185	0	0	0	0	1	-360	360	-210.1804	58.4313	210.5137	-54.2990;
	9024	4929	0.00192	0.02296	0	889	0	0	0	0	1	-360	360	-215.7349	56.4654	216.6393	-45.6498;
	1815	6542	0.01431	0.05899	0	0	0	0	0	0	1	-360	360	54.0121	-38.2705	-53.4176	40.7213;
	6542	1445	0.02607	0.07168	0	0	0	0	0	0	1	-360	360	-7.8712	57.8979	8.6908	-55.6443;
	6069	6833	0.00054	0.00465	0	1580	0	0	0	0	1	-360	360	274.8897	162.6704	-274.3242	-157.8010;
	6069	2268	0.00126	0.01124	0	1613	0	0	0	0	1	-360	360	-267.9515	-51.5292	268.9143	60.1185;
	6069	7180	0.00048	0.00527	0	1547	0	0	0	0	1	-360	360	263.6370	99.1281	-263.2461	-94.8370;
	6069	6293	0.00082	0.00938	0	1580	0	0	0	0	1	-360	360	-472.6947	-103.9401	474.6662	126.4918;
	1968	9192	0.00028	0.003502	0	0	0	0	0	0	1	-360	360	-124.9999	-25.8044	125.0428	26.3411;
	1968	3493	0.691467	4.414711	0	0	0	0	0	0	1	-360	360	-0.4134	-0.0413	0.4146	0.0484;
	1968	955	0.02004	0.0916	0	0	0	0	0	0	1	-360	360	-4.8895	25.8051	5.0196	-25.2106;
	1968	228	0.841911	4.768444	0	0	0	0	0	0	1	-360	360	-1.0785	-0.0753	1.0877	0.1278;
	1968	6826	0.026	0.08948	0	0	0	0	0	0	1	-360	360	-58.1105	-24.5125	59.0835	27.8611;
	1968	8964	0.002631	0.011889	0	299	0	0	0	0	1	-360	360	288.3836	-6.9216	-286.3238	16.2294;
	1968	5776	0.7232	1.944	0	0	0	0	0	0	1	-360	360	-2.8772	-0.6196	2.9362	0.7780;
	9192	955	0.156169	0.546756	0	0	0	0	0	0	1	-360	360	0.2340	4.3077	-0.2067	-4.2122;
	9192	6826	0.168809	0.580622	0	0	0	0	0	0	1	-360	360	-8.2084	-3.8135	8.3382	4.2599;
	9192	8964	0.019222	0.068209	0	0	0	0	0	0	1	-360	360	55.8133	-3.7294	-55.2487	5.7326;
	8574	1616	0.00039	0.00386	0	1415	0	0	0	0	1	-360	360	-151.0709	-101.1055	151.2002	102.3851;
	8574	1163	0.00096	0.01138	0	1448	0	0	0	0	1	-360	360	-145.2947	25.6132	145.5043	-23.1282;
	8574	9064	0.00037	0.00325	0	1415	0	0	0	0	1	-360	360	-152.3865	-102.9191	152.5120	104.0216;
	8574	8921	0.00029	0.00339	0	1580	0	0	0	0	1	-360	360	-185.9115	-3.9195	186.0121	5.0955;
	3493	2299	0.009458	0.158871	0	0	0	0	0	0	1	-360	360	7.6258	-1.0437	-7.6206	1.1314;
	2299	4423	0	0.000222	0	0	0	0	0	0	1	-360	360	-4.4998	-28.0757	4.4998	28.0774;
	6826	2299	0.312951	7.130667	0	0	0	0	0	0	1	-360	360	0.5786	0.4517	-0.5771	-0.4180;
	7563	2299	0.247649	1.075911	0	0	0	0	0	0	1	-360	360	-1.7221	0.6914	1.7300	-0.6571;
	4427	2299	0.06056	0.18612	0	0	0	0	0	0	1	-360	360	6.7847	-2.8503	-6.7541	2.9443;
	8335	2299	2.142489	4.347733	0	0	0	0	0	0	1	-360	360	-0.0496	-0.5870	0.0569	0.6018;
	5155	2299	0.07132	1.068889	0	0	0	0	0	0	1	-360	360	1.5330	-0.6031	-1.5312	0.6304;
	271	2299	0.02268	0.08652	0	0	0	0	0	0	1	-360	360	43.1396	-6.7869	-42.7395	8.3133;
	2449	2299	2.007778	4.494222	0	0	0	0	0	0	1	-360	360	1.4631	0.1228	-1.4251	-0.0378;
	4665	2299	0.006178	0.028938	0	0	0	0	0	0	1	-360	360	-20.2512	-3.7397	20.2757	3.8544;
	4495	2299	0.027711	0.260951	0	0	0	0	0	0	1	-360	360	1.9453	-1.3559	-1.9438	1.3696;
	3493	5587	0	0.000222	0	299	0	0	0	0	1	-360	360	-219.6486	-61.3053	219.6486	61.4130;
	4586	3493	0.00692	0.337378	0	0	0	0	0	0	1	-360	360	-3.5623	2.1250	3.5634	-2.0716;
	228	3493	0.025991	0.10048	0	0	0	0	0	0	1	-360	360	32.9585	1.0838	-32.6994	-0.0821;
	6826	3493	0.083711	0.8648	0	0	0	0	0	0	1	-360	360	3.5042	3.6706	-3.4853	-3.4753;
	7563	3493	0.447378	1.862089	0	0	0	0	0	0	1	-360	360	-1.5937	0.6237	1.6058	-0.5732;
	4427	3493	0.062169	0.153191	0	0	0	0	0	0	1	-360	360	1.1356	-0.6462	-1.1346	0.6486;
	8335	3493	2.492533	4.725778	0	0	0	0	0	0	1	-360	360	-0.2487	-0.4116	0.2544	0.4224;
	5155	3493	0.020271	0.08244	0	0	0	0	0	0	1	-360	360	4.0609	-6.4242	-4.0499	6.4690;
	271	3493	0.11416	1.777556	0	0	0	0	0	0	1	-360	360	1.5057	0.1592	-1.5032	-0.1216;
	5776	3493	0.574978	2.992578	0	0	0	0	0	0	1	-360	360	1.2584	0.7829	-1.2472	-0.7248;
	2449	3493	1.887067	4.964444	0	0	0	0	0	0	1	-360	360	1.1278	0.2820	-1.1054	-0.2232;
	4665	3493	0.250778	0.817422	0	0	0	0	0	0	1	-360	360	-2.0324	0.4773	2.0427	-0.4440;
	4495	3493	0.007049	0.029609	0	0	0	0	0	0	1	-360	360	-23.0321	-1.2290	23.0672	1.3764;
	5587	4586	0.003049	0.020218	0	0	0	0	0	0	1	-360	360	56.3987	-41.1568	-56.2602	42.0754;
	4423	4586	0.002911	0.020262	0	0	0	0	0	0	1	-360	360	-4.4998	-27.7227	4.5211	27.8714;
	4929	2870	4e-05	0.00041	0	757	0	0	0	0	1	-360	360	0.0000	-0.6451	-0.0000	0.6451;
	4929	659	0.00087	0.01087	0	1283	0	0	0	0	1	-360	360	-179.4159	41.0069	179.6991	-37.4685;
	4929	1037	4e-05	0.00046	0	757	0	0	0	0	1	-360	360	0.0000	-0.5723	0.0000	0.5723;
	4929	659	0.00095	0.00924	0	1481	0	0	0	0	1	-360	360	-209.4897	52.8861	209.9159	-48.7407;
	1815	5210	0.528017	2.636157	0	0	0	0	0	0	1	-360	360	1.0909	0.7130	-1.0824	-0.6706;
	1815	1445	0.032031	0.128659	0	0	0	0	0	0	1	-360	360	15.6316	14.2141	-15.4960	-13.6696;
	1616	7762	0.00044	0.0032	0	1645	0	0	0	0	1	-360	360	-455.1914	-184.3719	456.2465	192.0454;
	1616	2520	0.00046	0.00489	0	1711	0	0	0	0	1	-360	360	303.9912	96.5208	-303.5259	-91.5751;
	9064	7762	0.0003	0.00352	0	1580	0	0	0	0	1	-360	360	-432.7081	-203.9073	433.3914	211.9244;
	9064	89	0.00051	0.00454	0	1645	0	0	0	0	1	-360	360	280.1961	115.2164	-279.7302	-111.0686;
	1317	659	0.00068	0.00746	0	1613	0	0	0	0	1	-360	360	-491.4510	4.0863	493.0491	13.4461;
	1317	8605	0.00093	0.01022	0	1744	0	0	0	0	1	-360	360	342.1510	19.2601	-341.0883	-7.5820;
	8605	1367	4e-05	0.0004	0	1481	0	0	0	0	1	-360	360	290.8409	67.2771	-290.8059	-66.9272;
	8605	8921	0.00078	0.00698	0	1744	0	0	0	0	1	-360	360	477.2474	101.6844	-475.4242	-85.3690;
	1163	1676	4e-05	0.00043	0	1580	0	0	0	0	1	-360	360	214.9294	53.3563	-214.9097	-53.1442;
	1163	7051	0.00025	0.00309	0	1678	0	0	0	0	1	-360	360	-360.4338	-14.2839	360.7610	18.3287;
	913	7762	0.00047	0.00538	0	1613	0	0	0	0	1	-360	360	607.2717	375.8203	-605.0243	-350.0951;
	2107	7762	0.00046	0.00548	0	1744	0	0	0	0	1	-360	360	1544.0161	618.7950	-1532.4061	-480.4834;
	2107	5996	0.00016	0.00173	0	1843	0	0	0	0	1	-360	360	-1008.8929	-230.4471	1010.4560	247.3480;
	2107	6293	0.00166	0.01471	0	1744	0	0	0	0	1	-360	360	734.2767	273.5522	-724.9794	-191.1646;
	913	7762	0.00051	0.00512	0	1777	0	0	0	0	1	-360	360	642.1283	386.6886	-639.4419	-359.7183;
	6704	8921	0.00021	0.00248	0	1514	0	0	0	0	1	-360	360	-289.2163	-94.3005	289.4122	96.6135;
	228	4586	0.004391	0.021689	0	286	0	0	0	0	1	-360	360	203.5536	-26.3121	-201.8579	34.6881;
	2441	6293	0.00024	0.00289	0	1645	0	0	0	0	1	-360	360	-250.1402	-96.3733	250.3132	98.4566;
	955	3506	0	0.000222	0	338	0	0	0	0	1	-360	360	-288.2064	-101.2195	288.2064	101.4230;
	955	8964	0.01788	0.100471	0	0	0	0	0	0	1	-360	360	39.1935	-22.0577	-38.8383	24.0537;
	3506	2908	0.006458	0.039982	0	0	0	0	0	0	1	-360	360	-38.5810	-34.5981	38.7513	35.6522;
	228	6826	0.106151	0.993333	0	0	0	0	0	0	1	-360	360	0.3768	-2.4980	-0.3706	2.5562;
	228	5776	0.699778	3.232311	0	0	0	0	0	0	1	-360	360	-0.1221	-0.6063	0.1246	0.6177;
	8964	6826	0.257058	0.43592	0	0	0	0	0	0	1	-360	360	-17.8959	1.1635	18.6829	0.1710;
	5776	6826	0.002769	0.011449	0	0	0	0	0	0	1	-360	360	43.2013	-45.7030	-43.1046	46.1030;
	659	8329	0.00034	0.00305	0	1580	0	0	0	0	1	-360	360	383.1947	169.1714	-382.6184	-164.0016;
	659	7051	0.00123	0.01255	0	1843	0	0	0	0	1	-360	360	659.2475	115.4160	-653.9251	-61.1095;
	659	9239	6e-05	0.00065	0	1415	0	0	0	0	1	-360	360	-418.8961	-61.2112	419.0000	62.3366;
	659	7960	6e-05	0.00063	0	1514	0	0	0	0	1	-360	360	-418.8962	-59.9581	419.0000	61.0479;
	659	6233	6e-05	0.00055	0	1744	0	0	0	0	1	-360	360	-452.8736	-59.4888	452.9946	60.5973;
	659	5416	0.00079	0.00968	0	1349	0	0	0	0	1	-360	360	-203.6230	151.9082	204.1156	-145.8730;
	659	6798	7e-05	0.00079	0	0	0	0	0	0	1	-360	360	-949.0815	-117.6434	949.7000	124.6234;
	792	3279	0	0.000222	0	377	0	0	0	0	1	-360	360	-306.7416	-19.9821	306.7416	20.1887;
	7563	792	2.064178	7.545333	0	0	0	0	0	0	1	-360	360	-1.2726	0.8691	1.3180	-0.7033;
	7279	792	0.153711	0.482489	0	0	0	0	0	0	1	-360	360	-19.4607	12.3780	20.2305	-9.9617;
	8335	792	0.015809	0.12368	0	0	0	0	0	0	1	-360	360	-64.3457	12.9997	65.0132	-7.7776;
	2449	792	0.057978	0.363422	0	0	0	0	0	0	1	-360	360	-6.7626	18.8532	6.9667	-17.5741;
	4665	792	0.6932	2.196889	0	0	0	0	0	0	1	-360	360	-3.6908	2.6376	3.8241	-2.2150;
	4495	792	0.560356	2.395867	0	0	0	0	0	0	1	-360	360	-3.2212	2.0349	3.2974	-1.7094;
	5416	2267	0.00024	0.00213	0	757	0	0	0	0	1	-360	360	17.0094	182.0929	-16.9299	-181.3872;
	5416	7637	0.00093	0.00884	0	1283	0	0	0	0	1	-360	360	-221.1250	-10.8502	221.5765	15.1421;
	8964	2168	0	0.000222	0	312	0	0	0	0	1	-360	360	-254.0135	-70.0009	254.0135	70.1476;
	3659	5996	0.00018	0.00204	0	1777	0	0	0	0	1	-360	360	615.1366	652.0204	-613.8637	-637.5945;
	5762	5996	0.00018	0.00208	0	757	0	0	0	0	1	-360	360	-0.0000	2.4705	0.0000	-2.4704;
	3242	5097	0	0.000222	0	0	0	0	0	0	1	-360	360	-19.7802	29.2676	19.7802	-29.2652;
	7563	3242	0.02068	0.093391	0	0	0	0	0	0	1	-360	360	-87.3775	0.2020	88.8387	6.3967;
	4427	3242	0.777778	7.408	0	0	0	0	0	0	1	-360	360	-0.6493	-0.2575	0.6529	0.2912;
	3242	7279	0.00884	0.07292	0	0	0	0	0	0	1	-360	360	114.8329	32.3370	-113.7124	-23.0938;
	271	3242	0.131671	8.295556	0	0	0	0	0	0	1	-360	360	-0.2607	-0.2428	0.2608	0.2525;
	3242	1611	0.082462	0.568222	0	0	0	0	0	0	1	-360	360	0.0296	1.7693	-0.0273	-1.7534;
	5097	1611	0.0042	0.02624	0	0	0	0	0	0	1	-360	360	1.3198	37.9444	-1.2658	-37.6075;
	8181	8179	0.00031	0.00317	0	1251	0	0	0	0	1	-360	360	33.4453	72.4872	-33.4256	-72.2853;
	8181	7762	0.00043	0.00498	0	1481	0	0	0	0	1	-360	360	-303.5557	-182.7019	304.0951	188.9484;
	9025	7762	0.00042	0.00508	0	1711	0	0	0	0	1	-360	360	-324.7421	-91.2109	325.2154	96.9359;
	7563	4427	0.110671	0.773067	0	0	0	0	0	0	1	-360	360	-4.2987	1.2412	4.3192	-1.0980;
	7563	7279	0.00912	0.037609	0	0	0	0	0	0	1	-360	360	5.4551	23.2400	-5.4071	-23.0416;
	7563	8335	0.098049	0.598711	0	0	0	0	0	0	1	-360	360	-4.0865	5.8177	4.1324	-5.5376;
	7563	5155	0.019031	1.160356	0	0	0	0	0	0	1	-360	360	-3.1744	0.8407	3.1763	-0.7249;
	7563	271	0.024071	0.915733	0	0	0	0	0	0	1	-360	360	-6.4620	0.3226	6.4713	0.0321;
	2449	7563	1.484267	4.479111	0	0	0	0	0	0	1	-360	360	1.9166	0.1066	-1.8686	0.0382;
	4665	7563	0.011578	0.063271	0	0	0	0	0	0	1	-360	360	20.7938	-12.0536	-20.7312	12.3952;
	4495	7563	0.654889	1.839111	0	0	0	0	0	0	1	-360	360	1.1402	-0.7146	-1.1291	0.7457;
	7563	1611	0.022049	0.10076	0	0	0	0	0	0	1	-360	360	-79.4712	9.5222	80.7784	-3.5484;
	4427	7279	0.459867	2.604711	0	0	0	0	0	0	1	-360	360	1.3109	-0.0208	-1.3036	0.0626;
	4427	8335	2.320222	6.088	0	0	0	0	0	0	1	-360	360	0.1936	0.3535	-0.1901	-0.3443;
	4427	5155	0.006369	0.048089	0	0	0	0	0	0	1	-360	360	-4.0013	9.3005	4.0074	-9.2545;
	4427	271	0.006631	0.0432	0	0	0	0	0	0	1	-360	360	-56.7029	-1.0481	56.9018	2.3442;
	2449	4427	2.567244	6.767111	0	0	0	0	0	0	1	-360	360	0.7997	0.2209	-0.7842	-0.1800;
	4665	4427	0.309889	1.214178	0	0	0	0	0	0	1	-360	360	-1.5594	0.3262	1.5667	-0.2974;
	4495	4427	0.009191	0.043289	0	0	0	0	0	0	1	-360	360	-20.3941	0.4347	20.4299	-0.2662;
	4427	1611	0.691022	5.239556	0	0	0	0	0	0	1	-360	360	-0.9159	-0.1508	0.9215	0.1929;
	5210	1445	0.002669	0.01718	0	0	0	0	0	0	1	-360	360	-53.4281	2.4304	53.5039	-1.9423;
	8179	5509	0.00074	0.00694	0	1251	0	0	0	0	1	-360	360	-141.8048	122.1410	142.0650	-119.7003;
	8179	7762	0.00068	0.008	0	1547	0	0	0	0	1	-360	360	-201.3704	-142.4082	201.7857	147.2944;
	7279	4014	0	0.000222	0	0	0	0	0	0	1	-360	360	0.0000	0.0000	0.0000	0.0000;
	8335	7279	0.00524	0.030631	0	0	0	0	0	0	1	-360	360	83.7470	-80.0445	-83.0579	84.0723;
	5155	7279	0.33932	3.814667	0	0	0	0	0	0	1	-360	360	0.9553	-0.0496	-0.9524	0.0824;
	271	7279	0.22696	2.614933	0	0	0	0	0	0	1	-360	360	2.2636	0.2270	-2.2528	-0.1018;
	2449	7279	0.190671	0.719378	0	0	0	0	0	0	1	-360	360	12.3114	2.6697	-12.0459	-1.6681;
	4665	7279	1.050222	2.105556	0	0	0	0	0	0	1	-360	360	0.6215	-0.1214	-0.6175	0.1293;
	4495	7279	1.431644	4.294578	0	0	0	0	0	0	1	-360	360	0.5560	-0.1037	-0.5517	0.1165;
	1611	7279	0.022618	0.161089	0	0	0	0	0	0	1	-360	360	51.5682	7.3700	-51.0116	-3.4059;
	5509	1579	0.00088	0.00895	0	1810	0	0	0	0	1	-360	360	-709.6498	21.6190	714.1703	24.3565;
	8335	1531	0	0.000222	0	299	0	0	0	0	1	-360	360	-265.0705	-4.9616	265.0705	5.1144;
	5155	8335	1.827778	7.768	0	0	0	0	0	0	1	-360	360	0.1358	0.2477	-0.1345	-0.2419;
	2449	8335	0.020849	0.153382	0	0	0	0	0	0	1	-360	360	38.0568	35.5348	-37.5609	-31.8866;
	4665	8335	0.156231	0.656267	0	0	0	0	0	0	1	-360	360	-1.4305	4.1566	1.4587	-4.0381;
	4495	8335	0.176498	0.891556	0	0	0	0	0	0	1	-360	360	-0.0297	2.7262	0.0420	-2.6642;
	7762	2268	0.00067	0.00777	0	1613	0	0	0	0	1	-360	360	473.3591	150.4897	-471.7415	-131.7301;
	5155	271	0.004578	0.061889	0	0	0	0	0	0	1	-360	360	-36.0428	-10.9852	36.1039	11.8113;
	5155	2908	0.01348	0.05932	0	0	0	0	0	0	1	-360	360	-0.3132	10.1435	0.3262	-10.0861;
	4665	5155	0.066391	2.802622	0	0	0	0	0	0	1	-360	360	-0.7952	0.1397	0.7956	-0.1227;
...
];

%%-----  OPF Data  -----%%
%% generator cost data
%	1	startup	shutdown	n	x1	y1	...	xn	yn
%	2	startup	shutdown	n	c(n-1)	...	c0
mpc.gencost = [
	2	0	0	3	0	1	0;
	2	0	0	3	0	1	0;
	2	0	0	3	0	1	0;
	2	0	0	3	0	1	0;
	2	0	0	3	0	1	0;
	2	0	0	3	0	1	0;
	2	0	0	3	0	1	0;
	2	0	0	3	0	1	0;
	2	0	0	3	0	1	0;
	2	0	0	3	0	1	0;
	2	0	0	3	0	1	0;
	2	0	0	3	0	1	0;
	2	0	0	3	0	1	0;
	2	0	0	3	0	1	0;
	2	0	0	3	0	1	0;
	2	0	0	3	0	1	0;
	2	0	0	3	0	1	0;
	2	0	0	3	0	1	0;
	2	0	0	3	0	1	0;
	2	0	0	3	0	1	0;
	2	0	0	3	0	1	0;
	2	0	0	3	0	1	0;
	2	0	0	3	0	1	0;
	2	0	0	3	0	1	0;
	2	0	0	3	0	1	0;
	2	0	0	3	0	1	0;
	2	0	0	3	0	1	0;
	2	0	0	3	0	1	0;
	2	0	0	3	0	1	0;
	2	0	0	3	0	1	0;
	2	0	0	3	0	1	0;
	2	0	0	3	0	1	0;
	2	0	0	3	0	1	0;
	2	0	0	3	0	1	0;
	2	0	0	3	0	1	0;
	2	0	0	3	0	1	0;
	2	0	0	3	0	1	0;
	2	0	0	3	0	1	0;
	2	0	0	3	0	1	0;
	2	0	0	3	0	1	0;
	2	0	0	3	0	1	0;
	2	0	0	3	0	1	0;
	2	0	0	3	0	1	0;
	2	0	0	3	0	1	0;
	2	0	0	3	0	1	0;
	2	0	0	3	0	1	0;
	2	0	0	3	0	1	0;
	2	0	0	3	0	1	0;
	2	0	0	3	0	1	0;
	2	0	0	3	0	1	0;
	2	0	0	3	0	1	0;
	2	0	0	3	0	1	0;
	2	0	0	3	0	1	0;
	2	0	0	3	0	1	0;
	2	0	0	3	0	1	0;
	2	0	0	3	0	1	0;
	2	0	0	3	0	1	0;
	2	0	0	3	0	1	0;
	2	0	0	3	0	1	0;
	2	0	0	3	0	1	0;
	2	0	0	3	0	1	0;
	2	0	0	3	0	1	0;
	2	0	0	3	0	1	0;
	2	0	0	3	0	1	0;
	2	0	0	3	0	1	0;
	2	0	0	3	0	1	0;
	2	0	0	3	0	1	0;
	2	0	0	3	0	1	0;
	2	0	0	3	0	1	0;
	2	0	0	3	0	1	0;
	2	0	0	3	0	1	0;
	2	0	0	3	0	1	0;
	2	0	0	3	0	1	0;
	2	0	0	3	0	1	0;
	2	0	0	3	0	1	0;
	2	0	0	3	0	1	0;
	2	0	0	3	0	1	0;
	2	0	0	3	0	1	0;
	2	0	0	3	0	1	0;
	2	0	0	3	0	1	0;
	2	0	0	3	0	1	0;
	2	0	0	3	0	1	0;
	2	0	0	3	0	1	0;
	2	0	0	3	0	1	0;
	2	0	0	3	0	1	0;
	2	0	0	3	0	1	0;
	2	0	0	3	0	1	0;
	2	0	0	3	0	1	0;
	2	0	0	3	0	1	0;
	2	0	0	3	0	1	0;
	2	0	0	3	0	1	0;
	2	0	0	3	0	1	0;
	2	0	0	3	0	1	0;
	2	0	0	3	0	1	0;
	2	0	0	3	0	1	0;
	2	0	0	3	0	1	0;
	2	0	0	3	0	1	0;
	2	0	0	3	0	1	0;
	2	0	0	3	0	1	0;
	2	0	0	3	0	1	0;
	2	0	0	3	0	1	0;
	2	0	0	3	0	1	0;
	2	0	0	3	0	1	0;
	2	0	0	3	0	1	0;
	2	0	0	3	0	1	0;
	2	0	0	3	0	1	0;
	2	0	0	3	0	1	0;
	2	0	0	3	0	1	0;
	2	0	0	3	0	1	0;
	2	0	0	3	0	1	0;
	2	0	0	3	0	1	0;
	2	0	0	3	0	1	0;
	2	0	0	3	0	1	0;
	2	0	0	3	0	1	0;
	2	0	0	3	0	1	0;
	2	0	0	3	0	1	0;
	2	0	0	3	0	1	0;
	2	0	0	3	0	1	0;
	2	0	0	3	0	1	0;
	2	0	0	3	0	1	0;
	2	0	0	3	0	1	0;
	2	0	0	3	0	1	0;
	2	0	0	3	0	1	0;
	2	0	0	3	0	1	0;
	2	0	0	3	0	1	0;
	2	0	0	3	0	1	0;
	2	0	0	3	0	1	0;
	2	0	0	3	0	1	0;
	2	0	0	3	0	1	0;
	2	0	0	3	0	1	0;
	2	0	0	3	0	1	0;
	2	0	0	3	0	1	0;
	2	0	0	3	0	1	0;
	2	0	0	3	0	1	0;
	2	0	0	3	0	1	0;
	2	0	0	3	0	1	0;
	2	0	0	3	0	1	0;
	2	0	0	3	0	1	0;
	2	0	0	3	0	1	0;
	2	0	0	3	0	1	0;
	2	0	0	3	0	1	0;
	2	0	0	3	0	1	0;
	2	0	0	3	0	1	0;
	2	0	0	3	0	1	0;
	2	0	0	3	0	1	0;
	2	0	0	3	0	1	0;
	2	0	0	3	0	1	0;
	2	0	0	3	0	1	0;
	2	0	0	3	0	1	0;
	2	0	0	3	0	1	0;
	2	0	0	3	0	1	0;
	2	0	0	3	0	1	0;
	2	0	0	3	0	1	0;
	2	0	0	3	0	1	0;
	2	0	0	3	0	1	0;
	2	0	0	3	0	1	0;
	2	0	0	3	0	1	0;
	2	0	0	3	0	1	0;
	2	0	0	3	0	1	0;
	2	0	0	3	0	1	0;
	2	0	0	3	0	1	0;
	2	0	0	3	0	1	0;
	2	0	0	3	0	1	0;
	2	0	0	3	0	1	0;
	2	0	0	3	0	1	0;
	2	0	0	3	0	1	0;
	2	0	0	3	0	1	0;
	2	0	0	3	0	1	0;
	2	0	0	3	0	1	0;
	2	0	0	3	0	1	0;
	2	0	0	3	0	1	0;
	2	0	0	3	0	1	0;
	2	0	0	3	0	1	0;
	2	0	0	3	0	1	0;
	2	0	0	3	0	1	0;
	2	0	0	3	0	1	0;
	2	0	0	3	0	1	0;
	2	0	0	3	0	1	0;
	2	0	0	3	0	1	0;
	2	0	0	3	0	1	0;
	2	0	0	3	0	1	0;
	2	0	0	3	0	1	0;
	2	0	0	3	0	1	0;
	2	0	0	3	0	1	0;
	2	0	0	3	0	1	0;
	2	0	0	3	0	1	0;
	2	0	0	3	0	1	0;
	2	0	0	3	0	1	0;
	2	0	0	3	0	1	0;
	2	0	0	3	0	1	0;
	2	0	0	3	0	1	0;
	2	0	0	3	0	1	0;
	2	0	0	3	0	1	0;
	2	0	0	3	0	1	0;
	2	0	0	3	0	1	0;
	2	0	0	3	0	1	0;
	2	0	0	3	0	1	0;
	2	0	0	3	0	1	0;
	2	0	0	3	0	1	0;
	2	0	0	3	0	1	0;
...
];
